omf/scratch/gridballastVoltReg/_voltViz/currDump.csv
# currDump.csv run at 2012-01-01 12:00:00 EST on 5938 links
link_name,currA_real,currA_imag,currB_real,currB_imag,currC_real,currC_imag
OH3129228853001,0.000000,0.000000,0.000000,0.000000,0.000000,0.000000
FS3129228853001,0.000000,0.000000,0.000000,0.000000,0.000000,0.000000
UD3129228852001,0.000000,0.000000,0.000000,0.000000,0.000000,0.000000
OC3129228843004,52.719463,-83.972241,-77.582534,7.472833,48.266488,85.799568
OH3129228770001,52.719463,-83.972241,-77.582534,7.472833,48.266488,85.799568
OH3129228790002,52.719463,-83.972241,-77.582534,7.472833,48.266488,85.799568
OH3129228790003,52.719463,-83.972241,-77.582534,7.472833,48.266488,85.799568
OH3129228786001,52.719463,-83.972241,-77.582534,7.472833,48.266488,85.799568
OH3129228782001,52.719463,-83.972241,-77.582534,7.472833,48.266488,85.799568
OH3129228688001,52.719463,-83.972241,-77.582534,7.472833,48.266488,85.799568
OH3129228692001,52.719463,-83.972241,-77.582534,7.472833,48.266488,85.799568
FS3129228692001,0.000000,0.000000,0.000000,0.000000,0.456546,-0.190123
UD3129229673001,0.000000,0.000000,0.000000,0.000000,0.456546,-0.190123
UD3129320644001,0.000000,0.000000,0.000000,0.000000,0.456546,-0.190123
OH3129228598001,52.719463,-83.972241,-77.582534,7.472833,47.809942,85.989691
OH3129228594001,52.719463,-83.972241,-77.582534,7.472833,47.809942,85.989691
OH3129228400001,52.719463,-83.972241,-77.582534,7.472833,47.809942,85.989691
OH3129229407001,52.719463,-83.972241,-77.582534,7.472833,47.809942,85.989691
OH3129229416001,52.719463,-83.972241,-77.582534,7.472833,47.809942,85.989691
OH3129229466001,52.719463,-83.972241,-77.858024,6.690532,47.809942,85.989691
SW3129229466001,52.719463,-83.972241,-77.858024,6.690532,47.809942,85.989691
SW3129229466002,52.719463,-83.972241,-77.858024,6.690532,47.809942,85.989691
OH3129320416001,52.719463,-83.972241,-77.858024,6.690532,47.809942,85.989691
OH3129320466001,52.719463,-83.972241,-77.858024,6.690532,47.809942,85.989691
OH3129321406001,52.719463,-83.972241,-77.858024,6.690532,47.809942,85.989691
OH3129321446001,52.719463,-83.972241,-77.858024,6.690532,47.809942,85.989691
OH3129321486001,52.719463,-83.972241,-77.858024,6.690532,47.809942,85.989691
OH3129322436001,52.719463,-83.972241,-77.858024,6.690532,47.809942,85.989691
OH3129322486001,52.719463,-83.972241,-77.858024,6.690532,47.809942,85.989691
FS3129322486002,0.000000,0.000000,0.000000,0.000000,0.526952,1.592486
OH3129323427002,0.000000,0.000000,0.000000,0.000000,0.141133,1.414397
OH3129323487001,0.000000,0.000000,0.000000,0.000000,0.141133,1.414397
OH3129323486001,0.000000,0.000000,0.000000,0.000000,0.123088,0.439165
OH3129324446001,0.000000,0.000000,0.000000,0.000000,0.123088,0.439165
OH3129324456001,0.000000,0.000000,0.000000,0.000000,0.123088,0.439165
OH3129324469001,0.000000,0.000000,0.000000,0.000000,0.123088,0.439165
OH3129322489001,0.000000,0.000000,0.000000,0.000000,0.385820,0.178089
OH3129322419001,0.000000,0.000000,0.000000,0.000000,0.081354,0.656875
OH3129322492001,52.719463,-83.972241,-77.858024,6.690532,47.282989,84.397205
OH3129322300001,53.117499,-83.894374,-77.858024,6.690532,47.282989,84.397205
OH3129322378001,0.000000,0.000000,-12.604613,6.406203,0.000000,0.000000
OC3129322378001,0.000000,0.000000,-12.604613,6.406203,0.000000,0.000000
OH3129322358001,0.000000,0.000000,-12.604613,6.406203,0.000000,0.000000
OH3129322348001,0.000000,0.000000,-11.800371,6.563811,0.000000,0.000000
OH3129322308001,0.000000,0.000000,-11.800371,6.563811,0.000000,0.000000
OH3129321348001,0.000000,0.000000,-11.234485,5.430423,0.000000,0.000000
OH3129321349002,0.000000,0.000000,-0.074357,0.753650,0.000000,0.000000
OH3129321441002,0.000000,0.000000,-0.074357,0.753650,0.000000,0.000000
OH3129321444001,0.000000,0.000000,0.012540,0.557161,0.000000,0.000000
OH3129320388001,0.000000,0.000000,-11.073232,4.480282,0.000000,0.000000
OH3129320388002,0.000000,0.000000,0.022534,0.565187,0.000000,0.000000
OH3129320482001,0.000000,0.000000,0.022534,0.565187,0.000000,0.000000
OH3129320328001,0.000000,0.000000,-11.095766,3.915095,0.000000,0.000000
OH3129320422001,0.000000,0.000000,-0.416439,0.182345,0.000000,0.000000
OH3129229368001,0.000000,0.000000,-10.809245,3.349745,0.000000,0.000000
OH3129228398001,0.000000,0.000000,-10.809245,3.349745,0.000000,0.000000
OH3129228368001,0.000000,0.000000,-10.809245,3.349745,0.000000,0.000000
OH3129227398002,0.000000,0.000000,-10.987575,2.923416,0.000000,0.000000
OH3129227319001,0.000000,0.000000,-10.987575,2.923416,0.000000,0.000000
UD3129226482001,0.000000,0.000000,-0.349602,-0.036185,0.000000,0.000000
OH3129226319001,0.000000,0.000000,-10.556533,2.757119,0.000000,0.000000
OH3129225379001,0.000000,0.000000,-10.660054,2.395737,0.000000,0.000000
OH3129225496001,0.000000,0.000000,0.194369,0.444447,0.000000,0.000000
OH3129225370001,0.000000,0.000000,-10.854422,1.951290,0.000000,0.000000
OH3129225310001,0.000000,0.000000,-10.854422,1.951290,0.000000,0.000000
OH3129223491001,0.000000,0.000000,-10.854422,1.951290,0.000000,0.000000
OH3129224347001,0.000000,0.000000,0.182677,0.434503,0.000000,0.000000
OH3129224371001,0.000000,0.000000,0.182677,0.434503,0.000000,0.000000
OH3129225206001,0.000000,0.000000,0.182677,0.434503,0.000000,0.000000
OH3129225234001,0.000000,0.000000,0.000000,0.000000,0.000000,0.000000
FS3129225244001,0.000000,0.000000,0.000000,0.000000,0.000000,0.000000
UD3129225177001,0.000000,0.000000,0.000000,0.000000,0.000000,0.000000
OH3129223338001,0.000000,0.000000,-11.037099,1.516787,0.000000,0.000000
OH3129222365001,0.000000,0.000000,-11.037099,1.516787,0.000000,0.000000
OH3129221393001,0.000000,0.000000,-11.037099,1.516787,0.000000,0.000000
OH3129221240001,0.000000,0.000000,-11.037099,1.516787,0.000000,0.000000
OH3129220278001,0.000000,0.000000,-11.037099,1.516787,0.000000,0.000000
OH3129220226001,0.000000,0.000000,-8.836220,0.430235,0.000000,0.000000
FS3129220226003,0.000000,0.000000,-1.562689,-0.014158,0.000000,0.000000
OH3129220272001,0.000000,0.000000,-1.562689,-0.014158,0.000000,0.000000
OH3129221110001,0.000000,0.000000,-1.004065,0.206520,0.000000,0.000000
OH3129221109001,0.000000,0.000000,-1.004065,0.206520,0.000000,0.000000
OH3129221103001,0.000000,0.000000,-0.649685,0.247586,0.000000,0.000000
OH3129212008001,0.000000,0.000000,-0.649685,0.247586,0.000000,0.000000
OH3129212004001,0.000000,0.000000,-0.649685,0.247586,0.000000,0.000000
OH3129212013001,0.000000,0.000000,-0.649685,0.247586,0.000000,0.000000
OH3129212051001,0.000000,0.000000,-0.649685,0.247586,0.000000,0.000000
FS3129220226004,0.000000,0.000000,-6.452625,-0.202982,0.000000,0.000000
OH3129220128001,0.000000,0.000000,-6.452625,-0.202982,0.000000,0.000000
OH3129220123002,0.000000,0.000000,-5.391986,-0.641724,0.000000,0.000000
OH3129211028001,0.000000,0.000000,-3.755808,-0.024272,0.000000,0.000000
OH3129211022001,0.000000,0.000000,-2.630675,-0.125893,0.000000,0.000000
OH3129210927001,0.000000,0.000000,-2.043536,-0.154764,0.000000,0.000000
OH3129210914001,0.000000,0.000000,-0.614074,0.008076,0.000000,0.000000
OH3129210917001,0.000000,0.000000,-1.279405,-0.301549,0.000000,0.000000
OH3129119967001,0.000000,0.000000,-0.433718,0.167662,0.000000,0.000000
OH3129210967001,0.000000,0.000000,-0.150057,0.138709,0.000000,0.000000
OH3129211018001,0.000000,0.000000,-0.708164,-0.347951,0.000000,0.000000
OH3129110069001,0.000000,0.000000,-0.708164,-0.347951,0.000000,0.000000
OH3129110057001,0.000000,0.000000,-0.708164,-0.347951,0.000000,0.000000
OH3129110027001,0.000000,0.000000,-0.708164,-0.347951,0.000000,0.000000
OH3129211066001,0.000000,0.000000,-0.416969,0.449572,0.000000,0.000000
OH3129220118001,0.000000,0.000000,-1.060639,0.438742,0.000000,0.000000
OH3129129168001,0.000000,0.000000,-0.959212,0.253059,0.000000,0.000000
OH3129129263001,0.000000,0.000000,-0.878106,-0.223959,0.000000,0.000000
OH3129129266001,0.000000,0.000000,-0.307085,0.003958,0.000000,0.000000
OH3129129266002,0.000000,0.000000,-0.307085,0.003958,0.000000,0.000000
OH3129129226001,0.000000,0.000000,-0.307085,0.003958,0.000000,0.000000
OH3129129361001,0.000000,0.000000,-0.758342,0.427727,0.000000,0.000000
OH3129129345001,0.000000,0.000000,0.040535,0.584285,0.000000,0.000000
OH3129129318001,0.000000,0.000000,0.204441,0.454190,0.000000,0.000000
FS3129220278002,0.000000,0.000000,-0.133975,0.704086,0.000000,0.000000
OH3129220331001,0.000000,0.000000,-0.133975,0.704086,0.000000,0.000000
OH3129220322001,0.000000,0.000000,-0.019923,0.530402,0.000000,0.000000
FS3129220278001,0.000000,0.000000,-2.066904,0.382466,0.000000,0.000000
OH3129221243001,0.000000,0.000000,-2.066904,0.382466,0.000000,0.000000
OH3129222118001,0.000000,0.000000,-0.945443,1.094660,0.000000,0.000000
OH3129222155001,0.000000,0.000000,-0.358942,1.336166,0.000000,0.000000
OH3129222192001,0.000000,0.000000,-0.603064,0.847278,0.000000,0.000000
OH3129214049001,0.000000,0.000000,-0.603064,0.847278,0.000000,0.000000
OH3129214076001,0.000000,0.000000,-0.603064,0.847278,0.000000,0.000000
OH3129215042001,0.000000,0.000000,-0.716794,0.198989,0.000000,0.000000
OH3129214998001,0.000000,0.000000,-0.516977,0.094599,0.000000,0.000000
OH3129214965001,0.000000,0.000000,-0.516977,0.094599,0.000000,0.000000
OH3129214922001,0.000000,0.000000,-0.516977,0.094599,0.000000,0.000000
OH3129213800001,0.000000,0.000000,0.107965,0.369763,0.000000,0.000000
OH3129213846001,0.000000,0.000000,0.107965,0.369763,0.000000,0.000000
OH3129213843001,0.000000,0.000000,0.107965,0.369763,0.000000,0.000000
OH3129213737001,0.000000,0.000000,0.107965,0.369763,0.000000,0.000000
OH3129213734002,0.000000,0.000000,0.107965,0.369763,0.000000,0.000000
OH3129213744001,0.000000,0.000000,0.107965,0.369763,0.000000,0.000000
OH3129213741002,0.000000,0.000000,0.107965,0.369763,0.000000,0.000000
OH3129213690001,0.000000,0.000000,0.107965,0.369763,0.000000,0.000000
OH3129214640001,0.000000,0.000000,0.107965,0.369763,0.000000,0.000000
OH3129322309001,0.000000,0.000000,-0.453057,0.959587,0.000000,0.000000
OH3129322402001,0.000000,0.000000,-0.324695,0.257677,0.000000,0.000000
FS3129322300001,0.000000,0.000000,0.000000,0.000000,0.959146,1.507398
OH3129323310001,0.000000,0.000000,0.000000,0.000000,0.959146,1.507398
OH3129323370001,0.000000,0.000000,0.000000,0.000000,0.959146,1.507398
OH3129324360001,0.000000,0.000000,0.000000,0.000000,0.808632,0.147221
OH3129324390001,0.000000,0.000000,0.000000,0.000000,0.649707,-0.111690
OH3129324390002,0.000000,0.000000,0.000000,0.000000,0.649707,-0.111690
OH3129325411002,0.000000,0.000000,0.000000,0.000000,0.649707,-0.111690
OH3129325319001,0.000000,0.000000,0.000000,0.000000,0.199845,0.052231
OH3129325349001,0.000000,0.000000,0.000000,0.000000,0.199845,0.052231
OH3129322396001,53.117499,-83.894374,-65.253411,0.284330,46.323844,82.889807
OH3129322392001,53.117499,-83.894374,-65.253411,0.284330,46.323844,82.889807
FS3129322392002,0.000000,0.000000,0.000000,0.000000,0.654913,0.931509
OH3129322392002,0.000000,0.000000,0.000000,0.000000,0.388726,0.161928
OH3129323363001,0.000000,0.000000,0.000000,0.000000,0.388726,0.161928
OH3129324334001,0.000000,0.000000,0.000000,0.000000,0.195460,0.075337
OH3129323200001,0.000000,0.000000,0.000000,0.000000,0.193266,0.086591
OH3129322371001,0.000000,0.000000,0.000000,0.000000,0.266187,0.769581
OH3129322298001,53.117499,-83.894374,-65.253411,0.284330,45.668930,81.958298
OH3129322295001,53.117499,-83.894374,-65.253411,0.284330,45.668930,81.958298
FS3129322295001,0.000000,0.000000,0.000000,0.000000,0.000000,0.000000
OH3129323285001,0.000000,0.000000,0.000000,0.000000,0.000000,0.000000
OH3129322276001,53.117499,-83.894374,-65.253411,0.284330,45.668930,81.958298
FS3129322276001,-1.163340,-0.908663,0.000000,0.000000,0.000000,0.000000
OH3129322206001,-1.163340,-0.908663,0.000000,0.000000,0.000000,0.000000
OH3129321236001,-0.566016,-0.677526,0.000000,0.000000,0.000000,0.000000
OH3129320266001,-0.212998,-0.581078,0.000000,0.000000,0.000000,0.000000
OH3129322272001,54.280839,-82.985711,-65.253411,0.284330,45.668930,81.958298
OH3129322177001,54.280839,-82.985711,-65.253411,0.284330,45.668930,81.958298
OH3129322172001,54.280839,-82.985711,-65.253411,0.284330,45.668930,81.958298
FS3129322172001,0.000000,0.000000,-3.335303,-2.653680,0.000000,0.000000
OH3129322132001,0.000000,0.000000,-3.335303,-2.653680,0.000000,0.000000
OH3129322112001,0.000000,0.000000,-3.335303,-2.653680,0.000000,0.000000
OH3129321192001,0.000000,0.000000,-3.335303,-2.653680,0.000000,0.000000
SW3129321192001-A,0.000000,0.000000,-3.335303,-2.653680,0.000000,0.000000
SW3129321192001-B,0.000000,0.000000,-3.335303,-2.653680,0.000000,0.000000
UD3129321153001,0.000000,0.000000,-3.335303,-2.653680,0.000000,0.000000
OH3129313079001,54.356489,-82.793818,-61.918108,2.938010,45.071839,81.776897
OH3129313066002,54.356489,-82.793818,-61.918108,2.938010,45.071839,81.776897
OH3129313042002,54.356489,-82.793818,-61.918108,2.938010,45.071839,81.776897
OH3129312928001,54.356489,-82.793818,-61.918108,2.938010,45.071839,81.776897
OH3129312927001,0.000850,-0.218670,0.000000,0.000000,0.000000,0.000000
FS3129312927001,0.000850,-0.218670,0.000000,0.000000,0.000000,0.000000
OH3129311926001,0.000850,-0.218670,0.000000,0.000000,0.000000,0.000000
OH3129310955001,0.000000,0.000000,0.000000,0.000000,0.000000,0.000000
OH3129312913001,54.355639,-82.575147,-61.918108,2.938010,45.071839,81.776897
OH3129312819001,54.355639,-82.575147,-61.918108,2.938010,45.071839,81.776897
FS3129312819002,0.000000,0.000000,0.000000,0.000000,0.000000,0.000000
OH3129311836001,0.000000,0.000000,0.000000,0.000000,0.000000,0.000000
OH3129312924001,0.335793,-0.551794,0.000000,0.000000,0.000000,0.000000
FS3129312819003,7.729219,-8.472536,-7.927568,0.324475,1.015324,0.950074
OH3129312850001,7.729219,-8.472536,-7.927568,0.324475,1.015324,0.950074
OH3129312890001,7.461348,-8.446312,-7.772446,0.543137,1.127506,0.704819
OH3129313830002,7.461348,-8.446312,-7.772446,0.543137,1.127506,0.704819
OH3129313830005,0.000000,0.000000,0.000000,0.000000,0.000000,0.000000
OH3129313880001,7.461348,-8.446312,-7.772446,0.543137,1.127506,0.704819
OH3129313879001,7.461348,-8.446312,-7.772446,0.543137,0.945760,0.568842
OH3129313878001,7.461348,-8.446312,-7.772446,0.543137,0.945760,0.568842
OH3129314808001,7.461348,-8.446312,-7.772446,0.543137,0.737933,0.548053
SW3129314808001,0.000000,0.000000,-2.923227,0.165708,0.000000,0.000000
SW3129314808002,0.000000,0.000000,-2.923227,0.165708,0.000000,0.000000
OH3129314804001,0.000000,0.000000,-2.923227,0.165708,0.000000,0.000000
OH3129314802001,0.000000,0.000000,-2.339414,0.131703,0.000000,0.000000
OH3129314709001,0.000000,0.000000,-2.339414,0.131703,0.000000,0.000000
OH3129314704001,0.000000,0.000000,-1.616703,-0.052545,0.000000,0.000000
OH3129313794001,0.000000,0.000000,-1.067120,-0.663340,0.000000,0.000000
OH3129313774001,0.000000,0.000000,-1.067120,-0.663340,0.000000,0.000000
OH3129313600001,0.000000,0.000000,0.257442,0.499132,0.000000,0.000000
OH3129314848001,7.461348,-8.446312,-4.849219,0.377429,0.602442,0.165947
OH3129314878001,6.757543,-7.986567,-4.534299,0.380107,0.602442,0.165947
OH3129315828001,6.757543,-7.986567,-1.172719,-0.482248,0.602442,0.165947
OH3129315868001,6.757543,-7.986567,-1.172719,-0.482248,0.000000,0.000000
OH3129315898001,3.718382,-4.322786,-1.172719,-0.482248,0.000000,0.000000
OH3129315898002,3.718382,-4.322786,0.000000,0.000000,0.000000,0.000000
SW3129315898001,3.718382,-4.322786,0.000000,0.000000,0.000000,0.000000
SW3129315898002,3.718382,-4.322786,0.000000,0.000000,0.000000,0.000000
OH3129316848001,3.718382,-4.322786,0.000000,0.000000,0.000000,0.000000
OH3129316848002,3.718382,-4.322786,0.000000,0.000000,0.000000,0.000000
OH3129316843001,3.718382,-4.322786,0.000000,0.000000,0.000000,0.000000
OH3129316750001,3.796161,-4.130821,0.000000,0.000000,0.000000,0.000000
OH3129316746001,2.755133,-3.337184,0.000000,0.000000,0.000000,0.000000
OH3129316731001,1.883251,-2.171532,0.000000,0.000000,0.000000,0.000000
OH3129316636001,0.886013,-0.956792,0.000000,0.000000,0.000000,0.000000
OH3129316634001,0.200673,-0.287445,0.000000,0.000000,0.000000,0.000000
OH3129316631001,0.200673,-0.287445,0.000000,0.000000,0.000000,0.000000
SW3129315868001,3.039161,-3.663781,0.000000,0.000000,0.000000,0.000000
SW3129315868002,3.039161,-3.663781,0.000000,0.000000,0.000000,0.000000
OH3129315863001,3.039161,-3.663781,0.000000,0.000000,0.000000,0.000000
OH3129315833001,-0.394900,-0.083097,0.000000,0.000000,0.000000,0.000000
OH3129315770001,3.331872,-3.107817,0.000000,0.000000,0.000000,0.000000
OH3129315767002,2.887577,-2.739852,0.000000,0.000000,0.000000,0.000000
OH3129315774001,1.687590,-1.889958,0.000000,0.000000,0.000000,0.000000
OH3129315754001,0.363466,-0.343623,0.000000,0.000000,0.000000,0.000000
OH3129315762001,0.000000,0.000000,0.000000,0.000000,0.000000,0.000000
OH3129315680001,1.324124,-1.546335,0.000000,0.000000,0.000000,0.000000
OH3129315664001,1.134250,-1.043160,0.000000,0.000000,0.000000,0.000000
OH3129314878002,0.000000,0.000000,-3.361579,0.862356,0.000000,0.000000
SW3129314878001-A,0.000000,0.000000,-3.361579,0.862356,0.000000,0.000000
SW3129314878001-B,0.000000,0.000000,-3.361579,0.862356,0.000000,0.000000
OH3129314873002,0.000000,0.000000,-3.361579,0.862356,0.000000,0.000000
OH3129314778002,0.000000,0.000000,-2.485298,0.815892,0.000000,0.000000
OH3129314773001,0.000000,0.000000,-0.953389,1.068924,0.000000,0.000000
OH3129314678001,0.000000,0.000000,-0.870497,0.052393,0.000000,0.000000
OH3129314676001,0.000000,0.000000,-0.243604,0.059642,0.000000,0.000000
OH3129312826001,46.290628,-73.550818,-54.364928,1.465963,44.056514,80.826823
OH3129312822001,46.290628,-73.550818,-54.364928,1.465963,43.757847,81.264347
OH3129312727001,46.290628,-73.550818,-54.364928,1.465963,43.757847,81.264347
FS3129312727001,0.000000,0.000000,0.000000,0.000000,0.069834,0.716920
OH3129312725001,0.000000,0.000000,0.000000,0.000000,0.069834,0.716920
OH3129312775001,0.000000,0.000000,0.000000,0.000000,0.069834,0.716920
OH3129312785001,0.000000,0.000000,0.000000,0.000000,0.069834,0.716920
OH3129312713001,46.290628,-73.550818,-54.364928,1.465963,43.688013,80.547427
OH3129312617001,46.290628,-73.550818,-54.364928,1.465963,43.688013,80.547427
OH3129312622001,46.290628,-73.550818,-54.364928,1.465963,43.688013,80.547427
OH3129312528001,46.290628,-73.550818,-54.364928,1.465963,43.688013,80.547427
FS3129312528001,0.000000,0.000000,0.000000,0.000000,-0.084892,1.491061
OH3129312527001,0.000000,0.000000,0.000000,0.000000,-0.084892,1.491061
OH3129312589001,0.000000,0.000000,0.000000,0.000000,-0.084892,1.491061
OH3129312523001,46.290628,-73.550818,-54.364928,1.465963,43.772906,79.056366
OH3129312428001,46.290628,-73.550818,-54.364928,1.465963,43.772906,79.056366
OH3129312424001,46.290628,-73.550818,-54.364928,1.465963,43.772906,79.056366
FS3129312424001,0.000000,0.000000,-2.964966,1.757053,0.000000,0.000000
OH3129312423001,0.000000,0.000000,-2.964966,1.757053,0.000000,0.000000
OH3129312453002,0.000000,0.000000,-2.964966,1.757053,0.000000,0.000000
OH3129313413001,0.000000,0.000000,-2.834610,1.598444,0.000000,0.000000
OH3129313443001,0.000000,0.000000,-2.864225,0.755180,0.000000,0.000000
OH3129313463001,0.000000,0.000000,-2.219891,0.504754,0.000000,0.000000
OH3129313483001,0.000000,0.000000,-1.405376,0.678735,0.000000,0.000000
OH3129314403001,0.000000,0.000000,-0.589212,0.301491,0.000000,0.000000
OH3129314433001,0.000000,0.000000,-0.625243,-0.276526,0.000000,0.000000
OH3129314493001,0.000000,0.000000,-0.625243,-0.276526,0.000000,0.000000
OH3129314397001,0.000000,0.000000,-0.625243,-0.276526,0.000000,0.000000
OH3129314393001,0.000000,0.000000,-0.625243,-0.276526,0.000000,0.000000
OH3129312330001,46.290628,-73.550818,-51.399962,-0.291090,43.772906,79.056366
SW3129312330001,46.290628,-73.550818,-51.399962,-0.291090,43.772906,79.056366
SW3129312330002,46.290628,-73.550818,-51.399962,-0.291090,43.772906,79.056366
OH3129312325001,46.290628,-73.550818,-51.399962,-0.291090,43.772906,79.056366
OH3129312230001,46.290628,-73.550818,-51.399962,-0.291090,43.576385,78.974817
OH3129312225001,46.290628,-73.550818,-51.399962,-0.291090,43.576385,78.974817
OH3129312130001,46.290628,-73.550818,-51.399962,-0.291090,43.576385,78.974817
OH3129312114001,46.290628,-73.550818,-51.399962,-0.291090,43.576385,78.974817
FS3129312114001,1.024673,-1.012817,0.000000,0.000000,0.000000,0.000000
OH3129311123001,1.024673,-1.012817,0.000000,0.000000,0.000000,0.000000
OH3129310122001,1.024673,-1.012817,0.000000,0.000000,0.000000,0.000000
OH3129310119001,0.000000,0.000000,0.000000,0.000000,0.000000,0.000000
OH3129219294001,0.000000,0.000000,0.000000,0.000000,0.000000,0.000000
OH3129219361001,0.000000,0.000000,0.000000,0.000000,0.000000,0.000000
OH3129219288001,0.000000,0.000000,0.000000,0.000000,0.000000,0.000000
OH3129219173001,1.024673,-1.012817,0.000000,0.000000,0.000000,0.000000
OH3129219142001,0.000000,0.000000,0.000000,0.000000,0.000000,0.000000
OH3128300090001,0.705136,-0.682379,0.000000,0.000000,0.000000,0.000000
OH3129312121001,45.265955,-72.538001,-51.399962,-0.291090,43.576385,78.974817
FS3129312121001,1.119640,-0.072866,-0.611952,-0.931012,-0.504424,1.007347
OH3129312101001,1.119640,-0.072866,-0.611952,-0.931012,-0.504424,1.007347
FS3129312121002,0.000000,0.000000,0.000000,0.000000,1.323992,0.841489
OH3129312131001,0.000000,0.000000,0.000000,0.000000,1.323992,0.841489
OH3129313101001,0.000000,0.000000,0.000000,0.000000,1.323992,0.841489
OH3129313181001,0.000000,0.000000,0.000000,0.000000,0.410661,1.111198
OH3129313185001,0.000000,0.000000,0.000000,0.000000,0.167716,0.229163
OH3128404084001,0.000000,0.000000,0.000000,0.000000,0.063162,0.730711
OH3128403027001,44.146315,-72.465135,-50.788010,0.639922,42.756818,77.125981
OH3128403014001,44.146315,-72.465135,-50.788010,0.639922,42.756818,77.125981
OH3128403011001,44.146315,-72.465135,-50.788010,0.639922,42.756818,77.125981
OH3128402918001,42.840854,-71.878166,-48.286080,2.403033,42.910354,75.696708
OH3128402915001,42.840854,-71.878166,-48.286080,2.403033,42.910354,75.696708
OH3128402912001,42.840854,-71.878166,-48.286080,2.403033,42.910354,75.696708
OH3128402820001,42.840854,-71.878166,-48.286080,2.403033,42.910354,75.696708
FS3128402820001,-0.234495,-0.580028,0.000000,0.000000,0.000000,0.000000
OH3128401800001,-0.234495,-0.580028,0.000000,0.000000,0.000000,0.000000
OH3128401840001,-0.234495,-0.580028,0.000000,0.000000,0.000000,0.000000
OH3128401838001,-0.166500,-0.163201,0.000000,0.000000,0.000000,0.000000
OH3128402816001,43.075348,-71.298138,-48.286080,2.403033,42.617824,76.084173
OH3128402813001,43.075348,-71.298138,-48.286080,2.403033,42.617824,76.084173
OH3128402718001,43.075348,-71.298138,-48.286080,2.403033,42.481717,75.694424
OH3128402724001,43.075348,-71.298138,-48.286080,2.403033,42.481717,75.694424
OH3128402705001,13.288178,-23.335556,-20.747881,-1.677841,14.839563,22.096623
OH3128401797001,13.288178,-23.335556,-20.747881,-1.677841,14.839563,22.096623
OH3128401787001,13.288178,-23.335556,-20.747881,-1.677841,14.839563,22.096623
OH3128401777002,13.288178,-23.335556,-20.747881,-1.677841,14.839563,22.096623
SW3128401777001-A,13.288178,-23.335556,-20.747881,-1.677841,14.839563,22.096623
SW3128401777001-B,13.288178,-23.335556,-20.747881,-1.677841,14.839563,22.096623
OH3128401727001,13.288178,-23.335556,-20.747881,-1.677841,14.839563,22.096623
OH3128400787001,13.288178,-23.335556,-20.747881,-1.677841,14.643732,22.004216
FS3128400787001,0.000000,0.000000,0.000000,0.000000,0.602413,1.252160
OH3128400777001,0.000000,0.000000,0.000000,0.000000,0.602413,1.252160
OH3128400874001,0.000000,0.000000,0.000000,0.000000,0.602413,1.252160
OH3128400747002,13.288178,-23.335556,-20.747881,-1.677841,14.041319,20.752056
OH3128309777001,13.288178,-23.335556,-20.124517,-1.396899,14.041319,20.752056
FS3128309777001,0.000000,0.000000,0.000000,0.000000,0.000000,0.000000
OH3128309777002,0.000000,0.000000,0.000000,0.000000,0.000000,0.000000
OH3128309874001,0.000000,0.000000,0.000000,0.000000,0.000000,0.000000
OH3128309737001,13.288178,-23.335556,-20.124517,-1.396899,13.480155,21.401384
FS3128309737001,0.000000,0.000000,0.000000,0.000000,0.126631,0.420592
OH3128309738001,0.000000,0.000000,0.000000,0.000000,0.126631,0.420592
OH3128309740001,0.000000,0.000000,0.000000,0.000000,0.126631,0.420592
OH3128308797001,13.288178,-23.335556,-20.124517,-1.396899,13.353524,20.980792
FS3128308797001,1.101774,-0.599337,0.000000,0.000000,0.196893,0.073941
OH3128308788001,1.101774,-0.599337,0.000000,0.000000,0.196893,0.073941
OH3128308884001,1.101774,-0.599337,0.000000,0.000000,0.196893,0.073941
OH3128308890001,0.000000,0.000000,0.000000,0.000000,0.196893,0.073941
OH3128308767001,12.186405,-22.736218,-20.124517,-1.396899,13.156631,20.906851
OH3128308707001,12.186405,-22.736218,-20.124517,-1.396899,13.156631,20.906851
OH3128307757001,12.186405,-22.736218,-20.124517,-1.396899,13.156631,20.906851
FS3128307757001,0.000000,0.000000,0.000000,0.000000,0.306081,-0.462348
OH3128307757002,0.000000,0.000000,0.000000,0.000000,0.306081,-0.462348
OH3128307759001,0.000000,0.000000,0.000000,0.000000,0.306081,-0.462348
OH3128307707001,12.186405,-22.736218,-20.124517,-1.396899,12.850550,21.369199
OH3128306757001,12.186405,-22.736218,-20.124517,-1.396899,12.850550,21.369199
OH3128306756001,12.186405,-22.736218,-20.124517,-1.396899,11.770298,22.478745
FS3128306756001,0.000000,0.000000,-12.067640,-5.738335,0.000000,0.000000
OH3128307705001,0.000000,0.000000,-12.067640,-5.738335,0.000000,0.000000
OH3128307705002,0.000000,0.000000,-12.067640,-5.738335,0.000000,0.000000
OH3128307701001,0.000000,0.000000,-11.004866,-5.073527,0.000000,0.000000
OH3128307609001,0.000000,0.000000,-9.348253,-4.152744,0.000000,0.000000
OH3128307605001,0.000000,0.000000,-9.348253,-4.152744,0.000000,0.000000
OH3128306695002,0.000000,0.000000,-0.974672,-0.311860,0.000000,0.000000
OH3128307601001,0.000000,0.000000,-7.588992,-3.697137,0.000000,0.000000
OH3128307509001,0.000000,0.000000,-6.041684,-3.141831,0.000000,0.000000
OH3128307507001,0.000000,0.000000,-4.764284,-2.289157,0.000000,0.000000
OH3128307515001,0.000000,0.000000,-3.741147,-1.933908,0.000000,0.000000
OH3128306595001,0.000000,0.000000,-2.374851,-1.275880,0.000000,0.000000
OH3128305796001,10.824901,-21.826413,-8.056877,4.341436,11.770298,22.478745
FS3128305796001,0.000000,0.000000,-0.480239,0.394352,0.000000,0.000000
OH3128305798001,0.000000,0.000000,-0.480239,0.394352,0.000000,0.000000
OH3128306708001,0.000000,0.000000,-0.480239,0.394352,0.000000,0.000000
OH3128306710001,0.000000,0.000000,-0.480239,0.394352,0.000000,0.000000
OH3128305891001,0.000000,0.000000,-0.083482,0.470794,0.000000,0.000000
OH3128305885001,0.000000,0.000000,-0.034792,0.243754,0.000000,0.000000
OH3128305746001,10.824901,-21.826413,-7.576639,3.947083,11.770298,22.478745
FS3128305746001,0.000000,0.000000,0.000000,0.000000,0.199181,0.077516
OH3128305758001,0.000000,0.000000,0.000000,0.000000,0.199181,0.077516
OH3128305852001,0.000000,0.000000,0.000000,0.000000,0.000000,0.000000
OH3128305706001,10.824901,-21.826413,-7.463985,3.497502,11.571117,22.401230
FS3128305706001,0.000000,0.000000,0.000000,0.000000,0.560071,1.434743
OH3128305804001,0.000000,0.000000,0.000000,0.000000,0.560071,1.434743
OH3128305806002,0.000000,0.000000,0.000000,0.000000,0.467483,0.848064
OH3128305901001,0.000000,0.000000,0.000000,0.000000,0.147281,0.318312
OH3128304766001,10.824901,-21.826413,-7.622327,2.534268,11.011046,20.966486
OH3128304726001,10.824901,-21.826413,-6.586847,2.900886,11.011046,20.966486
OH3128303776001,10.824901,-21.826413,-6.586847,2.900886,11.011046,20.966486
OH3128303727001,9.991077,-21.098202,-6.586847,2.900886,11.011046,20.966486
SW3128303727001,9.991077,-21.098202,-6.586847,2.900886,11.011046,20.966486
SW3128303727002,9.991077,-21.098202,-6.586847,2.900886,11.011046,20.966486
OH3128302797001,9.991077,-21.098202,-6.586847,2.900886,11.011046,20.966486
FS3128302797002,0.000000,0.000000,0.000000,0.000000,0.276153,-0.310243
OH3128303709001,0.000000,0.000000,0.000000,0.000000,0.276153,-0.310243
OH3128302767002,10.218151,-20.955046,-6.228892,2.672607,10.734893,21.276729
OH3128302708001,10.218151,-20.955046,-6.228892,2.672607,10.734893,21.276729
FS3128302708001,0.000000,0.000000,0.000000,0.000000,0.000000,0.000000
FS3128302708002,0.000000,0.000000,-1.580009,0.516164,0.000000,0.000000
OH3128302716001,0.000000,0.000000,-1.580009,0.516164,0.000000,0.000000
OH3128301690001,0.000000,0.000000,-1.580009,0.516164,0.000000,0.000000
OH3128301653001,0.000000,0.000000,-1.580009,0.516164,0.000000,0.000000
OH3128301618001,0.000000,0.000000,-1.643673,-0.085029,0.000000,0.000000
OH3128300782001,0.000000,0.000000,-1.643673,-0.085029,0.000000,0.000000
OH3128300744001,0.000000,0.000000,-1.055723,0.160872,0.000000,0.000000
OH3128209788001,0.000000,0.000000,-0.630639,-0.011855,0.000000,0.000000
OH3128209789001,0.000000,0.000000,-0.349616,-0.037948,0.000000,0.000000
OH3128209718002,0.000000,0.000000,-0.349616,-0.037948,0.000000,0.000000
OH3128208758001,0.000000,0.000000,-0.349616,-0.037948,0.000000,0.000000
OH3128301528001,0.000000,0.000000,0.063664,0.601193,0.000000,0.000000
OH3128300581001,0.000000,0.000000,0.063664,0.601193,0.000000,0.000000
OH3128300546001,0.000000,0.000000,-0.192054,0.104407,0.000000,0.000000
OH3128300479001,0.000000,0.000000,0.000000,0.000000,0.000000,0.000000
OH3128301790001,10.218151,-20.955046,-4.648883,2.156443,10.734893,21.276729
OH3128301750001,10.218151,-20.955046,-4.648883,2.156443,8.738818,18.426078
OH3128301710001,10.218151,-20.955046,-4.648883,2.156443,8.447675,18.809414
OH3128300750002,10.218151,-20.955046,-4.648883,2.156443,8.447675,18.809414
OH3128300710001,10.218151,-20.955046,-4.648883,2.156443,8.447675,18.809414
OH3128209760001,10.218151,-20.955046,-4.648883,2.156443,8.447675,18.809414
OH3128208700001,10.218151,-20.955046,-4.648883,2.156443,8.447675,18.809414
OH3128208750001,10.218151,-20.955046,-4.648883,2.156443,8.447675,18.809414
OH3128207799001,10.218151,-20.955046,-4.648883,2.156443,8.447675,18.809414
OH3128207739001,10.218151,-20.955046,-4.648883,2.156443,8.447675,18.809414
OH3128206789001,6.660645,-14.000367,0.000000,0.000000,3.928312,11.364427
OH3128206749001,6.660645,-14.000367,0.000000,0.000000,3.734387,11.257800
OH3128206739004,6.660645,-14.000367,0.000000,0.000000,3.734387,11.257800
OH3128206739002,6.660645,-14.000367,0.000000,0.000000,3.734387,11.257800
OH3128206740001,6.660645,-14.000367,0.000000,0.000000,3.734387,11.257800
OH3128206835001,6.660645,-14.000367,0.000000,0.000000,3.734387,11.257800
OH3128206829002,6.660645,-14.000367,0.000000,0.000000,3.734387,11.257800
OH3128206955002,6.660645,-14.000367,0.000000,0.000000,3.734387,11.257800
FS3128206955001,-0.139357,-0.173274,0.000000,0.000000,0.000000,0.000000
OH3128207933001,-0.139357,-0.173274,0.000000,0.000000,0.000000,0.000000
FS3128206955002,0.522160,-1.726235,0.000000,0.000000,0.000000,0.000000
OH3128206869001,0.522160,-1.726235,0.000000,0.000000,0.000000,0.000000
OH3128206862002,0.522160,-1.726235,0.000000,0.000000,0.000000,0.000000
OH3128207835001,0.265737,-1.417566,0.000000,0.000000,0.000000,0.000000
OH3128207865001,0.265737,-1.417566,0.000000,0.000000,0.000000,0.000000
OH3128208805001,-0.467890,-0.504012,0.000000,0.000000,0.000000,0.000000
OH3128208845001,-0.437346,-0.293121,0.000000,0.000000,0.000000,0.000000
OH3128207851002,0.136260,-0.267837,0.000000,0.000000,0.000000,0.000000
OH3128206969001,6.525682,-11.964387,0.000000,0.000000,3.734387,11.257800
OH3128206980001,6.525682,-11.964387,0.000000,0.000000,3.734387,11.257800
SW3128206980001-A,6.525682,-11.964387,0.000000,0.000000,0.000000,0.000000
SW3128206980001-B,6.525682,-11.964387,0.000000,0.000000,0.000000,0.000000
OH3128207920001,6.525682,-11.964387,0.000000,0.000000,0.000000,0.000000
OH3128207930001,6.525682,-11.964387,0.000000,0.000000,0.000000,0.000000
OH3128208032001,6.525682,-11.964387,0.000000,0.000000,0.000000,0.000000
OH3128208041001,-0.030633,-0.210898,0.000000,0.000000,0.000000,0.000000
FS3128208041001,-0.030633,-0.210898,0.000000,0.000000,0.000000,0.000000
OH3128209011002,-0.030633,-0.210898,0.000000,0.000000,0.000000,0.000000
OH3128208970001,-0.030633,-0.210898,0.000000,0.000000,0.000000,0.000000
OH3128208047001,6.470729,-11.503110,0.000000,0.000000,0.000000,0.000000
OH3129117153001,6.309027,-11.226410,0.000000,0.000000,0.000000,0.000000
OH3129117156001,4.382943,-9.900793,0.000000,0.000000,0.000000,0.000000
OH3129117157001,4.864351,-9.843977,0.000000,0.000000,0.000000,0.000000
OH3129117168001,4.864351,-9.843977,0.000000,0.000000,0.000000,0.000000
OH3129117282001,4.794259,-9.598158,0.000000,0.000000,0.000000,0.000000
OH3129118208002,-0.923755,-2.548307,0.000000,0.000000,0.000000,0.000000
OH3129117375001,0.435520,-1.692594,0.000000,0.000000,0.000000,0.000000
FS3129117375001,0.287705,-1.419940,0.000000,0.000000,0.000000,0.000000
OH3129117367002,0.287705,-1.419940,0.000000,0.000000,0.000000,0.000000
OH3129116397002,0.287705,-1.419940,0.000000,0.000000,0.000000,0.000000
OH3129116337002,-0.890016,-0.797596,0.000000,0.000000,0.000000,0.000000
OH3129115397001,-0.718255,-0.637368,0.000000,0.000000,0.000000,0.000000
OH3129115581001,-0.141347,-0.613342,0.000000,0.000000,0.000000,0.000000
OH3129115594001,-0.141347,-0.613342,0.000000,0.000000,0.000000,0.000000
OH3129115476001,0.541898,-0.407216,0.000000,0.000000,0.000000,0.000000
OH3129116384001,1.177721,-0.622343,0.000000,0.000000,0.000000,0.000000
OH3129118225001,-0.582114,-0.019314,0.000000,0.000000,0.000000,0.000000
OH3129118324001,-0.777161,-0.836399,0.000000,0.000000,0.000000,0.000000
OH3129118337002,-0.777161,-0.836399,0.000000,0.000000,0.000000,0.000000
FS3129118337001,-0.777161,-0.836399,0.000000,0.000000,0.000000,0.000000
OH3129118451001,-0.777161,-0.836399,0.000000,0.000000,0.000000,0.000000
OH3129118489001,-0.777161,-0.836399,0.000000,0.000000,0.000000,0.000000
OH3129119513001,-0.249571,-0.798271,0.000000,0.000000,0.000000,0.000000
OH3129119543002,-0.744676,-0.406521,0.000000,0.000000,0.000000,0.000000
OH3129119571002,-0.379446,-0.310177,0.000000,0.000000,0.000000,0.000000
OH3129117291001,5.718014,-7.049851,0.000000,0.000000,0.000000,0.000000
FS3129117291001,5.718014,-7.049851,0.000000,0.000000,0.000000,0.000000
OH3129118201001,5.718014,-7.049851,0.000000,0.000000,0.000000,0.000000
OH3129118119001,1.642863,-1.006769,0.000000,0.000000,0.000000,0.000000
OH3129118281001,4.075151,-6.043082,0.000000,0.000000,0.000000,0.000000
OH3129118190001,1.293508,-0.884033,0.000000,0.000000,0.000000,0.000000
OH3129119221002,2.781643,-5.159049,0.000000,0.000000,0.000000,0.000000
OH3129119281002,3.038094,-5.025139,0.000000,0.000000,0.000000,0.000000
OH3129119188001,0.791896,-1.154466,0.000000,0.000000,0.000000,0.000000
OH3129119185001,0.791896,-1.154466,0.000000,0.000000,0.000000,0.000000
OH3129119175001,-0.378104,-0.089143,0.000000,0.000000,0.000000,0.000000
OH3129119181001,1.170000,-1.065323,0.000000,0.000000,0.000000,0.000000
OH3128200085001,0.525452,-0.623350,0.000000,0.000000,0.000000,0.000000
OH3128200094001,0.525452,-0.623350,0.000000,0.000000,0.000000,0.000000
OH3128301061002,0.525452,-0.623350,0.000000,0.000000,0.000000,0.000000
OH3129210211002,2.246197,-3.870673,0.000000,0.000000,0.000000,0.000000
OH3129210241002,1.977958,-3.556423,0.000000,0.000000,0.000000,0.000000
OH3129210246001,0.626179,-0.436336,0.000000,0.000000,0.000000,0.000000
OH3129210281001,2.130919,-2.502656,0.000000,0.000000,0.000000,0.000000
OH3129210298002,1.516045,-1.626026,0.000000,0.000000,0.000000,0.000000
OH3129211238002,0.580960,-0.421408,0.000000,0.000000,0.000000,0.000000
OH3129210393002,0.935084,-1.204619,0.000000,0.000000,0.000000,0.000000
OH3129211303001,0.529166,-0.624654,0.000000,0.000000,0.000000,0.000000
OH3129211332001,0.529166,-0.624654,0.000000,0.000000,0.000000,0.000000
OH3129211262002,0.844281,-0.733311,0.000000,0.000000,0.000000,0.000000
OH3129210148002,-0.779140,-0.617430,0.000000,0.000000,0.000000,0.000000
OH3129210153001,-0.481735,-0.497591,0.000000,0.000000,0.000000,0.000000
OH3129211136001,-0.085648,-0.414632,0.000000,0.000000,0.000000,0.000000
OH3129211176001,0.225432,-0.299486,0.000000,0.000000,0.000000,0.000000
OH3129119222001,0.000000,0.000000,0.000000,0.000000,0.000000,0.000000
OH3129119228002,0.000000,0.000000,0.000000,0.000000,0.000000,0.000000
OH3129117117002,0.000000,0.000000,0.000000,0.000000,0.000000,0.000000
OH3129117161001,0.139831,-0.269176,0.000000,0.000000,0.000000,0.000000
OH3128207081002,0.000000,0.000000,0.000000,0.000000,3.734387,11.257800
FS3128207081001,0.000000,0.000000,0.000000,0.000000,3.734387,11.257800
OH3128207021001,0.000000,0.000000,0.000000,0.000000,3.734387,11.257800
OH3128206021001,0.000000,0.000000,0.000000,0.000000,3.474443,11.472459
OH3128206021002,0.000000,0.000000,0.000000,0.000000,3.373570,10.912902
OH3128206001002,0.000000,0.000000,0.000000,0.000000,3.150126,10.950526
OH3128206001001,0.000000,0.000000,0.000000,0.000000,0.000000,0.000000
OH3128206002001,0.000000,0.000000,0.000000,0.000000,0.000000,0.000000
SW3128206006001-A,0.000000,0.000000,0.000000,0.000000,0.000000,0.000000
SW3128206006001-B,0.000000,0.000000,0.000000,0.000000,0.000000,0.000000
UD3128206006001,0.000000,0.000000,0.000000,0.000000,0.000000,0.000000
OH3128205041001,0.000000,0.000000,0.000000,0.000000,3.117934,10.052590
OH3128204081001,0.000000,0.000000,0.000000,0.000000,2.705375,9.958211
OH3128204021002,0.000000,0.000000,0.000000,0.000000,2.425713,10.265612
OH3128203910002,0.000000,0.000000,0.000000,0.000000,2.425713,10.265612
OH3128204004002,0.000000,0.000000,0.000000,0.000000,2.425713,10.265612
OH3128203094001,0.000000,0.000000,0.000000,0.000000,0.298149,0.638568
OH3128203044002,0.000000,0.000000,0.000000,0.000000,0.298149,0.638568
OH3128204008001,0.000000,0.000000,0.000000,0.000000,2.011001,8.087827
OH3128204058001,0.000000,0.000000,0.000000,0.000000,0.004366,1.031776
OH3128204008002,0.000000,0.000000,0.000000,0.000000,0.092411,2.694821
OH3128203058001,0.000000,0.000000,0.000000,0.000000,0.092411,2.694821
OH3128203028001,0.000000,0.000000,0.000000,0.000000,-0.089560,2.527250
OH3128202058001,0.000000,0.000000,0.000000,0.000000,0.056404,0.765419
OH3129111162001,0.000000,0.000000,0.000000,0.000000,0.056404,0.765419
OH3129111135001,0.000000,0.000000,0.000000,0.000000,0.056404,0.765419
OH3129113101001,0.000000,0.000000,0.000000,0.000000,1.914224,4.361229
OH3129113122001,0.000000,0.000000,0.000000,0.000000,0.139276,0.374419
OH3129113182002,0.000000,0.000000,0.000000,0.000000,0.139276,0.374419
OH3129113106001,0.000000,0.000000,0.000000,0.000000,1.774948,3.986810
OH3129112195001,0.000000,0.000000,0.000000,0.000000,0.670197,-0.118921
OH3129112156001,0.000000,0.000000,0.000000,0.000000,0.670197,-0.118921
OH3129113202002,0.000000,0.000000,0.000000,0.000000,1.104751,4.105732
OH3129112262002,0.000000,0.000000,0.000000,0.000000,0.257791,1.904278
OH3129112254002,0.000000,0.000000,0.000000,0.000000,0.168002,1.286324
OH3129113203002,0.000000,0.000000,0.000000,0.000000,0.846960,2.201454
OH3129113215001,0.000000,0.000000,0.000000,0.000000,0.846960,2.201454
OH3129113218002,0.000000,0.000000,0.000000,0.000000,0.846960,2.201454
OH3129113216001,0.000000,0.000000,0.000000,0.000000,0.283567,-0.328770
OH3129113257001,0.000000,0.000000,0.000000,0.000000,0.283567,-0.328770
OH3129113218001,0.000000,0.000000,0.000000,0.000000,0.563392,2.530224
OH3129113208002,0.000000,0.000000,0.000000,0.000000,0.531125,1.632555
OH3129113303001,0.000000,0.000000,0.000000,0.000000,0.531125,1.632555
OH3129113309001,0.000000,0.000000,0.000000,0.000000,0.531125,1.632555
OH3129113329001,0.000000,0.000000,0.000000,0.000000,0.314635,0.574838
OH3129113369002,0.000000,0.000000,0.000000,0.000000,0.314635,0.574838
OH3129113405001,0.000000,0.000000,0.000000,0.000000,0.216490,1.057716
OH3129113425001,0.000000,0.000000,0.000000,0.000000,0.216490,1.057716
OH3129113455001,0.000000,0.000000,0.000000,0.000000,0.216490,1.057716
OH3129113475002,0.000000,0.000000,0.000000,0.000000,-0.097164,1.531057
OH3129114408001,0.000000,0.000000,0.000000,0.000000,-0.097164,1.531057
OH3128206739003,0.000000,0.000000,0.000000,0.000000,0.000000,0.000000
OH3128207717001,3.557506,-6.954679,-4.648883,2.156443,4.519364,7.444987
OH3128207717002,3.557506,-6.954679,-4.648883,2.156443,4.519364,7.444987
SW3128207717001,3.557506,-6.954679,-4.648883,2.156443,4.519364,7.444987
SW3128207717002,3.557506,-6.954679,-4.648883,2.156443,4.519364,7.444987
OH3128206795001,3.557506,-6.954679,-4.648883,2.156443,4.519364,7.444987
OH3128206773001,3.557506,-6.954679,-4.648883,2.156443,4.519364,7.444987
FS3128206773001,0.000000,0.000000,-0.186558,0.379674,0.000000,0.000000
OH3128206772001,0.000000,0.000000,-0.186558,0.379674,0.000000,0.000000
OH3128206698002,0.000000,0.000000,-0.186558,0.379674,0.000000,0.000000
OH3128206629001,3.557506,-6.954679,-3.979161,1.385809,4.519364,7.444987
OH3128205696001,3.984180,-6.658102,-3.979161,1.385809,4.519364,7.444987
OH3128205642001,0.213654,-0.513639,-0.683165,0.491732,0.000000,0.000000
OH3128205509001,0.213654,-0.513639,0.000000,0.000000,0.000000,0.000000
OH3128205529002,0.000000,0.000000,0.000000,0.000000,0.000000,0.000000
OH3128204565001,0.000000,0.000000,0.000000,0.000000,0.000000,0.000000
OH3128204533001,0.000000,0.000000,0.000000,0.000000,0.000000,0.000000
OH3128204533002,0.000000,0.000000,0.000000,0.000000,0.000000,0.000000
OH3128205688001,0.421245,-0.809590,0.046084,0.314900,1.740804,0.973379
OH3128205773001,0.421245,-0.809590,0.046084,0.314900,1.559480,0.818041
OH3128205777001,0.000000,0.000000,0.046084,0.314900,1.559480,0.818041
FS3128205777001,0.000000,0.000000,0.000000,0.000000,1.559480,0.818041
OH3128205737001,0.000000,0.000000,0.000000,0.000000,1.156698,0.678061
OH3128204798001,0.000000,0.000000,0.000000,0.000000,0.524225,0.604442
OH3128204768001,0.000000,0.000000,0.000000,0.000000,0.242474,-0.129436
OH3128205789001,0.000000,0.000000,0.046084,0.314900,0.000000,0.000000
OH3128205779002,0.000000,0.000000,0.000000,0.000000,0.000000,0.000000
SW3128205779001-A,0.000000,0.000000,0.000000,0.000000,0.000000,0.000000
SW3128205779001-B,0.000000,0.000000,0.000000,0.000000,0.000000,0.000000
UD3128205779001,0.000000,0.000000,0.000000,0.000000,0.000000,0.000000
OH3128206709003,0.000000,0.000000,0.000000,0.000000,0.000000,0.000000
OH3128206709001,0.000000,0.000000,0.000000,0.000000,0.000000,0.000000
OH3128206739001,0.000000,0.000000,0.000000,0.000000,0.000000,0.000000
SW3128206709001-B,0.000000,0.000000,0.000000,0.000000,0.000000,0.000000
SW3128206709001-A,0.000000,0.000000,0.000000,0.000000,0.000000,0.000000
UD3128206709001,0.000000,0.000000,0.000000,0.000000,0.000000,0.000000
UD3128204881001,0.000000,0.000000,0.000000,0.000000,0.000000,0.000000
SW3128205789001,0.000000,0.000000,0.000000,0.000000,0.000000,0.000000
OH3128205692001,3.349281,-5.334873,-3.342080,0.579176,2.778559,6.471607
OH3128206510001,3.349281,-5.334873,-3.180503,0.448111,2.778559,6.471607
OH3128206514001,3.349281,-5.334873,-3.180503,0.448111,2.778559,6.471607
OH3128205592001,3.349281,-5.334873,-2.014218,0.939701,2.778559,6.471607
OH3128206430001,3.316835,-5.105165,-1.883306,0.781611,1.954804,7.330816
OH3128206440001,3.316835,-5.105165,-1.883306,0.781611,1.954804,7.330816
OH3128205497001,0.525657,-0.841473,0.000000,0.000000,0.780388,2.520792
OH3128205464001,0.000000,0.000000,0.000000,0.000000,0.780388,2.520792
OH3128205443001,0.000000,0.000000,0.000000,0.000000,0.186621,0.139898
FS3128205443001,0.000000,0.000000,0.000000,0.000000,0.593767,2.380894
OH3128205471002,0.000000,0.000000,0.000000,0.000000,0.593767,2.380894
OH3128206317001,0.000000,0.000000,0.000000,0.000000,0.374304,0.281177
OH3128206335001,0.000000,0.000000,0.000000,0.000000,0.162556,0.261879
OH3128206563001,2.791178,-4.263693,-1.883306,0.781611,1.284245,2.164861
OH3128206584001,1.992052,-3.330610,-1.883306,0.781611,1.284245,2.164861
OH3128207524001,2.044481,-2.908812,-1.883306,0.781611,1.284245,2.164861
FS3128207524001,-0.010640,-1.099728,0.000000,0.000000,0.000000,0.000000
OH3128207527001,-0.010640,-1.099728,0.000000,0.000000,0.000000,0.000000
OH3128207540001,0.718128,-0.907279,0.000000,0.000000,0.000000,0.000000
OH3128207534003,2.055121,-1.809084,-1.883306,0.781611,1.284245,2.164861
OH3128207584001,0.363562,-0.785484,-1.883306,0.781611,1.284245,2.164861
OH3128208526001,0.363562,-0.785484,-1.883306,0.781611,0.721581,1.748983
FS3128208526001,0.559413,-0.412551,0.000000,0.000000,0.000000,0.000000
OH3128207500001,0.559413,-0.412551,0.000000,0.000000,0.000000,0.000000
OH3128208548001,-0.195850,-0.372933,-1.883306,0.781611,0.406606,1.178652
OH3128208569001,-0.195850,-0.372933,-1.883306,0.781611,0.163957,1.308299
OH3128208681001,0.105673,-0.257885,-1.883306,0.781611,0.163957,1.308299
FS3128208681001,0.000000,0.000000,-1.883306,0.781611,0.000000,0.000000
OH3128209518001,0.000000,0.000000,-1.883306,0.781611,0.000000,0.000000
OH3128209526001,0.000000,0.000000,-1.594239,0.493028,0.000000,0.000000
OH3128209544001,0.000000,0.000000,-1.325170,0.461197,0.000000,0.000000
OH3128209563001,0.000000,0.000000,-0.974358,0.497802,0.000000,0.000000
OH3128300418001,0.000000,0.000000,-0.974358,0.497802,0.000000,0.000000
OH3128300436001,0.000000,0.000000,-0.723714,0.448880,0.000000,0.000000
OH3128300455001,0.000000,0.000000,-0.398668,0.462774,0.000000,0.000000
OH3128300493001,0.000000,0.000000,-0.398668,0.462774,0.000000,0.000000
OH3128300349001,0.000000,0.000000,-0.554819,0.053460,0.000000,0.000000
OH3128209394001,0.000000,0.000000,-0.554819,0.053460,0.000000,0.000000
OH3128209333001,0.000000,0.000000,-0.291895,0.016206,0.000000,0.000000
OH3128209328001,0.000000,0.000000,-0.291895,0.016206,0.000000,0.000000
OH3128301452001,0.000000,0.000000,0.156151,0.409314,0.000000,0.000000
OH3128209603001,0.000000,0.000000,0.000000,0.000000,0.163957,1.308299
OH3128205565001,0.032446,-0.229708,-0.130912,0.158090,0.000000,0.000000
OH3128205548001,0.032446,-0.229708,0.000000,0.000000,0.000000,0.000000
OH3128205529003,0.000000,0.000000,0.000000,0.000000,0.000000,0.000000
OH3128205480003,0.000000,0.000000,0.000000,0.000000,0.823755,-0.859209
FS3128205480001,0.000000,0.000000,0.000000,0.000000,0.567600,-0.662635
OH3128205420001,0.000000,0.000000,0.000000,0.000000,0.567600,-0.662635
FS3128301790001,0.000000,0.000000,0.000000,0.000000,1.996075,2.850651
OH3128301872001,0.000000,0.000000,0.000000,0.000000,1.996075,2.850651
OH3128301838001,0.000000,0.000000,0.000000,0.000000,1.996075,2.850651
OH3128301858001,0.000000,0.000000,0.000000,0.000000,0.556178,0.460726
OH3128301952001,0.000000,0.000000,0.000000,0.000000,0.463672,-0.140056
OH3128301955001,0.000000,0.000000,0.000000,0.000000,0.463672,-0.140056
OH3128302808001,0.000000,0.000000,0.000000,0.000000,0.092506,0.600782
OH3128302879001,0.000000,0.000000,0.000000,0.000000,0.092506,0.600782
OH3128300848001,0.000000,0.000000,0.000000,0.000000,1.362116,0.671129
OH3128300862001,0.000000,0.000000,0.000000,0.000000,0.298473,-0.405964
OH3128209897001,0.000000,0.000000,0.000000,0.000000,0.756885,1.524165
OH3128209962001,0.000000,0.000000,0.000000,0.000000,0.002077,2.079679
OH3128209944001,0.000000,0.000000,0.000000,0.000000,0.048285,0.809152
OH3128209836001,0.000000,0.000000,0.000000,0.000000,0.456804,-0.138239
FS3128302797001,-0.227073,-0.143156,-0.357955,0.228279,0.000000,0.000000
OH3128302795001,-0.227073,-0.143156,-0.357955,0.228279,0.000000,0.000000
OH3128302600001,-0.227073,-0.143156,-0.357955,0.228279,0.000000,0.000000
OH3128302693001,-0.227073,-0.143156,-0.357955,0.228279,0.000000,0.000000
OH3128302588001,-0.227073,-0.143156,-0.357955,0.228279,0.000000,0.000000
OH3128302581001,-0.227073,-0.143156,-0.357955,0.228279,0.000000,0.000000
OH3128302480001,-0.227073,-0.143156,0.046469,0.315269,0.000000,0.000000
OH3128302469001,-0.227073,-0.143156,0.046469,0.315269,0.000000,0.000000
OH3128302427001,-0.227073,-0.143156,0.046469,0.315269,0.000000,0.000000
OH3128301486001,-0.227073,-0.143156,0.046469,0.315269,0.000000,0.000000
FS3128303776001,0.833823,-0.728211,0.000000,0.000000,0.000000,0.000000
OH3128303776002,0.833823,-0.728211,0.000000,0.000000,0.000000,0.000000
FS3128304766001,0.000000,0.000000,-1.035480,-0.366619,0.000000,0.000000
OH3128304755002,0.000000,0.000000,-1.035480,-0.366619,0.000000,0.000000
OH3128304752001,0.000000,0.000000,-1.035480,-0.366619,0.000000,0.000000
OH3128304657001,0.000000,0.000000,-0.228020,0.073042,0.000000,0.000000
OH3128304651001,0.000000,0.000000,-0.228020,0.073042,0.000000,0.000000
FS3128306757001,0.000000,0.000000,0.000000,0.000000,1.080251,-1.109546
OH3128306852001,0.000000,0.000000,0.000000,0.000000,1.080251,-1.109546
OH3128306859001,0.000000,0.000000,0.000000,0.000000,1.080251,-1.109546
OH3128306962001,0.000000,0.000000,0.000000,0.000000,0.825068,-0.911358
OH3128306956001,0.000000,0.000000,0.000000,0.000000,0.528166,-0.495331
OH3128402712001,29.787170,-47.962582,-27.538199,4.080874,27.240498,53.460238
OC3128402712001,29.787170,-47.962582,-27.538199,4.080874,27.240498,53.460238
OH3128402628001,29.787170,-47.962582,-27.538199,4.080874,27.240498,53.460238
OH3128402624001,29.787170,-47.962582,-27.538199,4.080874,27.240498,53.460238
FS3128402624001,0.000000,0.000000,0.000000,0.000000,0.269029,-0.268656
OH3128402675001,0.000000,0.000000,0.000000,0.000000,0.269029,-0.268656
OH3128402529001,29.787170,-47.962582,-27.538199,4.080874,26.971469,53.728894
OH3128402524001,29.787170,-47.962582,-27.538199,4.080874,26.688403,54.077130
OH3128402438001,29.787170,-47.962582,-27.538199,4.080874,26.688403,54.077130
OH3128402435001,29.815872,-47.751770,-27.538199,4.080874,26.688403,54.077130
FS3128402435001,0.000000,0.000000,0.000000,0.000000,0.064738,1.784617
OH3128403405001,0.000000,0.000000,0.000000,0.000000,0.064738,1.784617
OH3128403445002,0.000000,0.000000,0.000000,0.000000,0.064738,1.784617
OH3128402431001,29.815872,-47.751770,-27.538199,4.080874,26.623665,52.292513
FS3128402431001,0.000000,0.000000,0.000000,0.000000,0.199552,0.076932
OH3128402492001,0.000000,0.000000,0.000000,0.000000,0.199552,0.076932
OH3128402345001,29.815872,-47.751770,-27.538199,4.080874,26.424114,52.215581
OH3128402341001,29.815872,-47.751770,-27.538199,4.080874,26.053106,51.920893
SW3128402341001,29.815872,-47.751770,-27.538199,4.080874,26.053106,51.920893
SW3128402341002,29.815872,-47.751770,-27.538199,4.080874,26.053106,51.920893
OH3128402256001,29.815872,-47.751770,-27.538199,4.080874,26.053106,51.920893
OH3128402251001,29.815872,-47.751770,-27.596561,3.755096,26.053106,51.920893
OH3128402157001,29.815872,-47.751770,-27.091406,3.654250,26.053106,51.920893
SW3128402157001,6.067985,-12.686380,0.000000,0.000000,0.000000,0.000000
SW3128402157002,6.067985,-12.686380,0.000000,0.000000,0.000000,0.000000
OH3128402117001,6.067985,-12.686380,0.000000,0.000000,0.000000,0.000000
OH3128401177001,6.067985,-12.686380,0.000000,0.000000,0.000000,0.000000
FS3128401177001,0.002713,-0.440566,0.000000,0.000000,0.000000,0.000000
OH3128401189002,0.002713,-0.440566,0.000000,0.000000,0.000000,0.000000
OH3128401282001,0.002713,-0.440566,0.000000,0.000000,0.000000,0.000000
OH3128401147001,6.065272,-12.245814,0.000000,0.000000,0.000000,0.000000
FS3128401147002,0.700431,-0.459282,0.000000,0.000000,0.000000,0.000000
OH3128401139001,0.700431,-0.459282,0.000000,0.000000,0.000000,0.000000
OH3128401233001,0.700431,-0.459282,0.000000,0.000000,0.000000,0.000000
OH3128401237001,0.700431,-0.459282,0.000000,0.000000,0.000000,0.000000
OH3128401117001,5.364841,-11.786532,0.000000,0.000000,0.000000,0.000000
OC3128401117001,5.364841,-11.786532,0.000000,0.000000,0.000000,0.000000
OH3128400187001,5.364841,-11.786532,0.000000,0.000000,0.000000,0.000000
OH3128400157001,5.980108,-11.333987,0.000000,0.000000,0.000000,0.000000
OH3128400108001,5.980108,-11.333987,0.000000,0.000000,0.000000,0.000000
OH3128309148001,5.980108,-11.333987,0.000000,0.000000,0.000000,0.000000
FS3128309148001,1.459939,-1.381653,0.000000,0.000000,0.000000,0.000000
OH3128309242001,1.459939,-1.381653,0.000000,0.000000,0.000000,0.000000
OH3128309246001,1.459939,-1.381653,0.000000,0.000000,0.000000,0.000000
OH3128309352001,1.197694,-0.633246,0.000000,0.000000,0.000000,0.000000
OH3128309368001,1.197694,-0.633246,0.000000,0.000000,0.000000,0.000000
OH3128400310001,1.197694,-0.633246,0.000000,0.000000,0.000000,0.000000
OH3128400453001,1.197694,-0.633246,0.000000,0.000000,0.000000,0.000000
OH3128400495001,1.197694,-0.633246,0.000000,0.000000,0.000000,0.000000
OH3128400582001,1.197694,-0.633246,0.000000,0.000000,0.000000,0.000000
OH3128308198001,4.301440,-9.434655,0.000000,0.000000,0.000000,0.000000
FS3128308198001,0.453221,-0.376645,0.000000,0.000000,0.000000,0.000000
OH3128308190001,0.453221,-0.376645,0.000000,0.000000,0.000000,0.000000
OH3128308388001,0.453221,-0.376645,0.000000,0.000000,0.000000,0.000000
OH3128308389001,0.453221,-0.376645,0.000000,0.000000,0.000000,0.000000
OH3128308290001,0.453221,-0.376645,0.000000,0.000000,0.000000,0.000000
OH3128308385001,0.453221,-0.376645,0.000000,0.000000,0.000000,0.000000
SW3128308385001-A,0.453221,-0.376645,0.000000,0.000000,0.000000,0.000000
SW3128308385001-B,0.453221,-0.376645,0.000000,0.000000,0.000000,0.000000
UD3128308452001,0.453221,-0.376645,0.000000,0.000000,0.000000,0.000000
OH3128308186001,0.330693,-0.334992,0.000000,0.000000,0.000000,0.000000
OH3128308138001,3.517526,-8.723019,0.000000,0.000000,0.000000,0.000000
FS3128308138001,0.663665,-3.321975,0.000000,0.000000,0.000000,0.000000
OH3128307158001,0.663665,-3.321975,0.000000,0.000000,0.000000,0.000000
OH3128307128001,0.210476,-2.945365,0.000000,0.000000,0.000000,0.000000
OH3128306158001,-0.722043,-2.403226,0.000000,0.000000,0.000000,0.000000
OH3128306118001,-0.474657,-2.269370,0.000000,0.000000,0.000000,0.000000
OH3128305271001,-0.083772,-2.184374,0.000000,0.000000,0.000000,0.000000
OH3128305235001,-0.083772,-2.184374,0.000000,0.000000,0.000000,0.000000
OH3128304299002,0.086457,-2.020989,0.000000,0.000000,0.000000,0.000000
OH3128304352001,0.086457,-2.020989,0.000000,0.000000,0.000000,0.000000
OH3128304239001,-0.011000,-0.658456,0.000000,0.000000,0.000000,0.000000
OH3128304217001,-0.011000,-0.658456,0.000000,0.000000,0.000000,0.000000
OH3128304216001,-0.335416,-0.327860,0.000000,0.000000,0.000000,0.000000
OH3128303262001,-0.335416,-0.327860,0.000000,0.000000,0.000000,0.000000
OH3128303117001,-0.335416,-0.327860,0.000000,0.000000,0.000000,0.000000
OH3128302163001,-0.335416,-0.327860,0.000000,0.000000,0.000000,0.000000
SW3128302163001,-0.228572,-0.143263,0.000000,0.000000,0.000000,0.000000
SW3128302163002,-0.228572,-0.143263,0.000000,0.000000,0.000000,0.000000
UD3128293079001,-0.228572,-0.143263,0.000000,0.000000,0.000000,0.000000
OH3128293008001,0.000000,0.000000,0.000000,0.000000,0.000000,0.000000
OH3128293007001,0.000000,0.000000,0.000000,0.000000,0.000000,0.000000
OH3128293044001,0.000000,0.000000,0.000000,0.000000,0.000000,0.000000
OH3128293910001,0.000000,0.000000,0.000000,0.000000,0.000000,0.000000
OH3128304314001,0.097457,-1.362533,0.000000,0.000000,0.000000,0.000000
OH3128303355001,0.097457,-1.362533,0.000000,0.000000,0.000000,0.000000
OH3128303326001,0.097457,-1.362533,0.000000,0.000000,0.000000,0.000000
OH3128303347001,0.121751,-0.927265,0.000000,0.000000,0.000000,0.000000
OH3128303462001,0.121751,-0.927265,0.000000,0.000000,0.000000,0.000000
OH3128303307002,-0.024293,-0.435268,0.000000,0.000000,0.000000,0.000000
OH3128302358001,-0.024293,-0.435268,0.000000,0.000000,0.000000,0.000000
OH3128302379001,0.000000,0.000000,0.000000,0.000000,0.000000,0.000000
OH3128302463001,0.000000,0.000000,0.000000,0.000000,0.000000,0.000000
OH3128302357001,-0.024293,-0.435268,0.000000,0.000000,0.000000,0.000000
OH3128302352001,-0.024293,-0.435268,0.000000,0.000000,0.000000,0.000000
OH3128302248001,-0.293062,-0.121016,0.000000,0.000000,0.000000,0.000000
OH3128302222001,-0.293062,-0.121016,0.000000,0.000000,0.000000,0.000000
FS3128308138002,2.627818,-5.101516,0.000000,0.000000,0.000000,0.000000
OH3128308134001,2.627818,-5.101516,0.000000,0.000000,0.000000,0.000000
OH3128308131001,2.590041,-4.645540,0.000000,0.000000,0.000000,0.000000
OH3128299043001,2.590041,-4.645540,0.000000,0.000000,0.000000,0.000000
OH3128298945001,2.387208,-4.357556,0.000000,0.000000,0.000000,0.000000
OH3128298986001,-0.723396,-0.195346,0.000000,0.000000,0.000000,0.000000
OH3128298942001,3.110604,-4.162210,0.000000,0.000000,0.000000,0.000000
OH3128298981001,-0.527154,-0.038029,0.000000,0.000000,0.000000,0.000000
OH3128299951001,-0.527154,-0.038029,0.000000,0.000000,0.000000,0.000000
OH3128298848001,3.576412,-3.881468,0.000000,0.000000,0.000000,0.000000
OH3128298847001,2.355320,-2.135564,0.000000,0.000000,0.000000,0.000000
OH3128298834001,2.269795,-1.885192,0.000000,0.000000,0.000000,0.000000
OH3128298729001,1.834717,-1.514811,0.000000,0.000000,0.000000,0.000000
OH3128390812001,-0.419309,-0.077479,0.000000,0.000000,0.000000,0.000000
OH3128299833001,-0.419309,-0.077479,0.000000,0.000000,0.000000,0.000000
OH3128298729002,2.254026,-1.437332,0.000000,0.000000,0.000000,0.000000
OH3128297791001,1.142238,-0.834032,0.000000,0.000000,0.000000,0.000000
OH3128297674001,0.648862,-0.443512,0.000000,0.000000,0.000000,0.000000
OH3128297558001,0.648862,-0.443512,0.000000,0.000000,0.000000,0.000000
OH3128298762001,0.493376,-0.390520,0.000000,0.000000,0.000000,0.000000
OH3128299702001,0.493376,-0.390520,0.000000,0.000000,0.000000,0.000000
OH3128298823001,0.435078,-0.370381,0.000000,0.000000,0.000000,0.000000
OH3128297853001,0.435078,-0.370381,0.000000,0.000000,0.000000,0.000000
OH3128297868001,0.863396,-1.401560,0.000000,0.000000,0.000000,0.000000
OH3128296898001,0.197571,-0.732186,0.000000,0.000000,0.000000,0.000000
OH3128296828001,0.105267,-0.257894,0.000000,0.000000,0.000000,0.000000
FS3128309148002,0.218729,-0.517680,0.000000,0.000000,0.000000,0.000000
OH3128309143001,0.218729,-0.517680,0.000000,0.000000,0.000000,0.000000
OH3128309152001,0.187326,-0.286112,0.000000,0.000000,0.000000,0.000000
OH3128290057001,0.187326,-0.286112,0.000000,0.000000,0.000000,0.000000
OH3128290052001,0.187326,-0.286112,0.000000,0.000000,0.000000,0.000000
OH3128400189001,-0.507488,-0.047196,0.000000,0.000000,0.000000,0.000000
OH3128400274001,-0.507488,-0.047196,0.000000,0.000000,0.000000,0.000000
OH3128400187002,-0.107779,-0.405348,0.000000,0.000000,0.000000,0.000000
OH3128400181001,-0.107779,-0.405348,0.000000,0.000000,0.000000,0.000000
OH3128391075001,-0.107779,-0.405348,0.000000,0.000000,0.000000,0.000000
OH3128390980001,-0.244352,-0.137502,0.000000,0.000000,0.000000,0.000000
FS3128401147001,0.000000,0.000000,0.000000,0.000000,0.000000,0.000000
OH3128401147002,0.000000,0.000000,0.000000,0.000000,0.000000,0.000000
OH3128401143001,0.000000,0.000000,0.000000,0.000000,0.000000,0.000000
FS3128402157001,-0.454279,-3.367365,0.000000,0.000000,0.000000,0.000000
OH3128402163001,-0.454279,-3.367365,0.000000,0.000000,0.000000,0.000000
OH3128393079001,-0.567820,-3.106883,0.000000,0.000000,0.000000,0.000000
OH3128393074001,-0.926129,-2.762388,0.000000,0.000000,0.000000,0.000000
OH3128394034001,0.963559,-0.992720,0.000000,0.000000,0.000000,0.000000
OH3128393071001,-1.889688,-1.769668,0.000000,0.000000,0.000000,0.000000
OH3128392986001,-1.229136,-1.556666,0.000000,0.000000,0.000000,0.000000
OH3128392974001,-1.188452,-1.349574,0.000000,0.000000,0.000000,0.000000
OH3128392890001,-0.969154,-1.206440,0.000000,0.000000,0.000000,0.000000
OH3128392867001,-0.475634,-0.936319,0.000000,0.000000,0.000000,0.000000
OH3128392883001,0.004222,-0.879763,0.000000,0.000000,0.000000,0.000000
OH3128392789001,-0.012284,-0.431701,0.000000,0.000000,0.000000,0.000000
OH3128392784001,-0.012284,-0.431701,0.000000,0.000000,0.000000,0.000000
OH3128392781001,-0.012284,-0.431701,0.000000,0.000000,0.000000,0.000000
OH3128392695001,0.000000,0.000000,0.000000,0.000000,0.000000,0.000000
OH3128392681001,0.000000,0.000000,0.000000,0.000000,0.000000,0.000000
OH3128392500001,0.000000,0.000000,0.000000,0.000000,0.000000,0.000000
OH3128392813001,0.016506,-0.448062,0.000000,0.000000,0.000000,0.000000
OH3128391844001,-0.479858,-0.056564,0.000000,0.000000,0.000000,0.000000
OH3128393925001,-0.040684,-0.207092,0.000000,0.000000,0.000000,0.000000
OH3128394011001,-0.250631,-0.132270,0.000000,0.000000,0.000000,0.000000
OH3128393080001,0.358309,-0.344495,0.000000,0.000000,0.000000,0.000000
OH3128394040001,0.358309,-0.344495,0.000000,0.000000,0.000000,0.000000
OH3128402187001,24.202166,-31.698026,-27.091406,3.654250,26.053106,51.920893
...